powerfulcases/cases/ACTIVSg10k/ACTIVSg10k.raw
0, 100, 33, 0, 0, 60  / 02-Nov-2025 15:20:20 - MATPOWER 8.0


 10001, 'NEAH BAY 1  ',       138, 1,    1,    1, 1,   1.0116409,  -39.843601,  1.1,  0.9,  1.1,  0.9
 10002, 'FORKS 1     ',       138, 1,    1,    1, 1,   1.0170252,  -37.043319,  1.1,  0.9,  1.1,  0.9
 10003, 'OCEAN SHORES',       138, 1,    1,    1, 1,   1.0314498,  -34.039098,  1.1,  0.9,  1.1,  0.9
 10004, 'WESTPORT 1  ',       138, 1,    1,    1, 1,   1.0324589,  -33.926182,  1.1,  0.9,  1.1,  0.9
 10005, 'WESTPORT 2  ',       138, 1,    1,    1, 1,   1.0324073,  -33.932471,  1.1,  0.9,  1.1,  0.9
 10006, 'LONG BEACH 1',       138, 1,    1,    1, 1,   1.0255915,  -35.816633,  1.1,  0.9,  1.1,  0.9
 10007, 'LONG BEACH 1',       138, 1,    1,    1, 1,   1.0256414,  -35.808499,  1.1,  0.9,  1.1,  0.9
 10008, 'OCEAN PARK 1',       138, 1,    1,    1, 1,   1.0243111,  -34.741944,  1.1,  0.9,  1.1,  0.9
 10009, 'OCEAN PARK 2',       138, 1,    1,    1, 1,   1.0242459,  -34.751218,  1.1,  0.9,  1.1,  0.9
 10010, 'HOQUIAM 1   ',       138, 1,    1,    1, 1,   1.0230199,   -34.84581,  1.1,  0.9,  1.1,  0.9
 10011, 'PORT ANGELES',       138, 1,    1,    1, 1,   1.0073858,  -40.603606,  1.1,  0.9,  1.1,  0.9
 10012, 'ABERDEEN 1 1',       345, 1,    1,    1, 1,   1.0354328,  -32.265236,  1.1,  0.9,  1.1,  0.9
 10013, 'ABERDEEN 1 2',       138, 1,    1,    1, 1,   1.0281891,  -34.327064,  1.1,  0.9,  1.1,  0.9
 10014, 'MONTESANO 1 ',       138, 1,    1,    1, 1,   1.0256878,   -34.64117,  1.1,  0.9,  1.1,  0.9
 10015, 'MONTESANO 2 ',       138, 1,    1,    1, 1,   1.0254965,  -34.654275,  1.1,  0.9,  1.1,  0.9
 10016, 'RAYMOND 1   ',       138, 1,    1,    1, 1,   1.0266137,  -32.284026,  1.1,  0.9,  1.1,  0.9
 10017, 'RAYMOND 2   ',       138, 1,    1,    1, 1,   1.0264701,  -32.299269,  1.1,  0.9,  1.1,  0.9
 10018, 'ELMA 1 1    ',       138, 1,    1,    1, 1,   1.0320894,  -35.370085,  1.1,  0.9,  1.1,  0.9
 10019, 'PORT ANGELES',       345, 1,    1,    1, 1,    1.038592,  -36.540823,  1.1,  0.9,  1.1,  0.9
 10020, 'PORT ANGELES',       138, 1,    1,    1, 1,   1.0163177,  -39.074648,  1.1,  0.9,  1.1,  0.9
 10021, 'CATHLAMET 1 ',       138, 1,    1,    1, 1,    1.027115,  -31.899164,  1.1,  0.9,  1.1,  0.9
 10022, 'SHELTON 1 1 ',       138, 1,    1,    1, 1,   1.0405375,  -35.691866,  1.1,  0.9,  1.1,  0.9
 10023, 'SHELTON 2 1 ',       345, 1,    1,    1, 1,    1.032395,  -33.232508,  1.1,  0.9,  1.1,  0.9
 10024, 'SHELTON 2 2 ',       138, 1,    1,    1, 1,   1.0439774,  -35.612977,  1.1,  0.9,  1.1,  0.9
 10025, 'ROCHESTER 1 ',       138, 1,    1,    1, 1,   1.0333372,  -32.720484,  1.1,  0.9,  1.1,  0.9
 10026, 'FRIDAY HARBO',       138, 1,    1,    1, 1,   1.0116824,  -41.072887,  1.1,  0.9,  1.1,  0.9
 10027, 'SEQUIM 1 1  ',       138, 1,    1,    1, 1,   1.0038997,  -41.072378,  1.1,  0.9,  1.1,  0.9
 10028, 'SEQUIM 1 2  ',       138, 1,    1,    1, 1,   1.0036898,  -41.089378,  1.1,  0.9,  1.1,  0.9
 10029, 'SEQUIM 2 1  ',       138, 1,    1,    1, 1,   1.0089477,  -40.455574,  1.1,  0.9,  1.1,  0.9
 10030, 'OLYMPIA 1 1 ',       138, 1,    1,    1, 1,   1.0372316,  -35.052342,  1.1,  0.9,  1.1,  0.9
 10031, 'OLYMPIA 1 2 ',       138, 1,    1,    1, 1,   1.0370651,  -35.073682,  1.1,  0.9,  1.1,  0.9
 10032, 'OLYMPIA 2 1 ',       138, 1,    1,    1, 1,   1.0307508,  -36.117109,  1.1,  0.9,  1.1,  0.9
 10033, 'LONGVIEW 1 1',       138, 1,    1,    1, 1,    1.016838,  -32.557944,  1.1,  0.9,  1.1,  0.9
 10034, 'LONGVIEW 2 1',       138, 1,    1,    1, 1,    1.015676,  -32.426001,  1.1,  0.9,  1.1,  0.9
 10035, 'LONGVIEW 2 2',       138, 1,    1,    1, 1,   1.0151295,  -32.454759,  1.1,  0.9,  1.1,  0.9
 10036, 'LONGVIEW 2 3',       138, 1,    1,    1, 1,   1.0163185,  -32.393034,  1.1,  0.9,  1.1,  0.9
 10037, 'CHEHALIS 1 1',       138, 1,    1,    1, 1,   1.0338033,  -32.093125,  1.1,  0.9,  1.1,  0.9
 10038, 'OLYMPIA 3 1 ',       138, 1,    1,    1, 1,   1.0356734,  -36.400225,  1.1,  0.9,  1.1,  0.9
 10039, 'OLYMPIA 3 2 ',       138, 1,    1,    1, 1,   1.0359091,   -36.38095,  1.1,  0.9,  1.1,  0.9
 10040, 'OLYMPIA 4 1 ',       138, 1,    1,    1, 1,    1.030238,  -37.084123,  1.1,  0.9,  1.1,  0.9
 10041, 'WINLOCK 1   ',       138, 1,    1,    1, 1,   1.0323228,  -31.342346,  1.1,  0.9,  1.1,  0.9
 10042, 'CENTRALIA 1 ',       138, 1,    1,    1, 1,   1.0328935,  -33.190059,  1.1,  0.9,  1.1,  0.9
 10043, 'BELFAIR 1   ',       138, 1,    1,    1, 1,   1.0218061,  -38.811021,  1.1,  0.9,  1.1,  0.9
 10044, 'BELFAIR 2   ',       138, 1,    1,    1, 1,   1.0216999,  -38.834832,  1.1,  0.9,  1.1,  0.9
 10045, 'CASTLE ROCK ',       138, 1,    1,    1, 1,   1.0227844,  -32.151262,  1.1,  0.9,  1.1,  0.9
 10046, 'OLYMPIA 5 1 ',       138, 1,    1,    1, 1,   1.0222881,   -34.51371,  1.1,  0.9,  1.1,  0.9
 10047, 'OLYMPIA 5 2 ',       138, 1,    1,    1, 1,   1.0221304,    -34.5383,  1.1,  0.9,  1.1,  0.9
 10048, 'OLYMPIA 6 1 ',       138, 1,    1,    1, 1,   1.0226376,  -34.487889,  1.1,  0.9,  1.1,  0.9
 10049, 'OLYMPIA 6 2 ',       138, 1,    1,    1, 1,   1.0228477,  -34.462782,  1.1,  0.9,  1.1,  0.9
 10050, 'OLYMPIA 6 3 ',       138, 1,    1,    1, 1,   1.0226376,  -34.487889,  1.1,  0.9,  1.1,  0.9
 10051, 'EASTSOUND 1 ',       138, 1,    1,    1, 1,   1.0136499,  -40.814996,  1.1,  0.9,  1.1,  0.9
 10052, 'EASTSOUND 2 ',       138, 1,    1,    1, 1,   1.0135818,  -40.825956,  1.1,  0.9,  1.1,  0.9
 10053, 'OLYMPIA 7 1 ',       138, 1,    1,    1, 1,   1.0269065,  -33.681628,  1.1,  0.9,  1.1,  0.9
 10054, 'PORT TOWNSEN',       138, 1,    1,    1, 1,   1.0046601,  -41.058556,  1.1,  0.9,  1.1,  0.9
 10055, 'TENINO 1    ',       138, 1,    1,    1, 1,   1.0267267,  -34.746926,  1.1,  0.9,  1.1,  0.9
 10056, 'TENINO 2    ',       138, 1,    1,    1, 1,   1.0268289,  -34.738068,  1.1,  0.9,  1.1,  0.9
 10057, 'LACEY 1 1   ',       345, 1,    1,    1, 1,   1.0309544,  -32.301317,  1.1,  0.9,  1.1,  0.9
 10058, 'LACEY 1 2   ',       138, 1,    1,    1, 1,    1.022309,  -34.670766,  1.1,  0.9,  1.1,  0.9
 10059, 'LACEY 1 3   ',       345, 1,    1,    1, 1,   1.0317222,  -32.205262,  1.1,  0.9,  1.1,  0.9
 10060, 'LACEY 2 1   ',       138, 1,    1,    1, 1,   1.0200555,  -34.755574,  1.1,  0.9,  1.1,  0.9
 10061, 'OLYMPIA 8 1 ',       138, 1,    1,    1, 1,   1.0261269,  -38.072955,  1.1,  0.9,  1.1,  0.9
 10062, 'BREMERTON 1 ',       138, 1,    1,    1, 1,   1.0206114,   -39.86985,  1.1,  0.9,  1.1,  0.9
 10063, 'BREMERTON 1 ',       138, 1,    1,    1, 1,   1.0207945,  -39.850744,  1.1,  0.9,  1.1,  0.9
 10064, 'BREMERTON 1 ',       138, 1,    1,    1, 1,   1.0204151,  -39.891009,  1.1,  0.9,  1.1,  0.9
 10065, 'BREMERTON 2 ',       138, 1,    1,    1, 1,   1.0197883,  -39.702987,  1.1,  0.9,  1.1,  0.9
 10066, 'BREMERTON 2 ',      13.8, 1,    1,    1, 1,   1.0197883,  -39.702987,  1.1,  0.9,  1.1,  0.9
 10067, 'BREMERTON 2 ',      13.8, 1,    1,    1, 1,   1.0197883,  -39.702987,  1.1,  0.9,  1.1,  0.9
 10068, 'BREMERTON 2 ',         1, 1,    1,    1, 1,   1.0197883,  -39.702987,  1.1,  0.9,  1.1,  0.9
 10069, 'KELSO 1     ',       138, 1,    1,    1, 1,   1.0127526,  -33.015071,  1.1,  0.9,  1.1,  0.9
 10070, 'LAKEBAY 1 1 ',       138, 1,    1,    1, 1,   1.0241138,  -39.019209,  1.1,  0.9,  1.1,  0.9
 10071, 'OLYMPIA 9 1 ',       138, 1,    1,    1, 1,   1.0257891,  -35.009419,  1.1,  0.9,  1.1,  0.9
 10072, 'OLYMPIA 10 1',       138, 1,    1,    1, 1,   1.0200845,  -35.099512,  1.1,  0.9,  1.1,  0.9
 10073, 'OLYMPIA 10 2',       138, 1,    1,    1, 1,    1.019747,  -35.120206,  1.1,  0.9,  1.1,  0.9
 10074, 'KALAMA 1    ',       138, 1,    1,    1, 1,   1.0142579,  -33.366167,  1.1,  0.9,  1.1,  0.9
 10075, 'KALAMA 2    ',       138, 1,    1,    1, 1,   1.0141746,  -33.374569,  1.1,  0.9,  1.1,  0.9
 10076, 'GIG HARBOR 1',       138, 1,    1,    1, 1,   1.0245081,  -38.174506,  1.1,  0.9,  1.1,  0.9
 10077, 'VANCOUVER 1 ',       138, 1,    1,    1, 1,   1.0263241,   -34.86003,  1.1,  0.9,  1.1,  0.9
 10078, 'SILVERDALE 1',       345, 1,    1,    1, 1,   1.0323963,  -34.304647,  1.1,  0.9,  1.1,  0.9
 10079, 'SILVERDALE 1',       138, 1,    1,    1, 1,   1.0223918,  -38.194635,  1.1,  0.9,  1.1,  0.9
 10080, 'SILVERDALE 1',        24, 1,    1,    1, 1,   1.0164502,   -43.75875,  1.1,  0.9,  1.1,  0.9
 10081, 'SILVERDALE 1',         1, 1,    1,    1, 1,   1.0164502,   -43.75875,  1.1,  0.9,  1.1,  0.9
 10082, 'SILVERDALE 2',       138, 1,    1,    1, 1,   1.0201843,  -39.061951,  1.1,  0.9,  1.1,  0.9
 10083, 'SILVERDALE 2',       138, 1,    1,    1, 1,   1.0200317,  -39.073656,  1.1,  0.9,  1.1,  0.9
 10084, 'BLAINE 1 1  ',       138, 1,    1,    1, 1,   1.0299458,  -38.147505,  1.1,  0.9,  1.1,  0.9
 10085, 'BLAINE 1 2  ',       138, 1,    1,    1, 1,   1.0297888,  -38.172812,  1.1,  0.9,  1.1,  0.9
 10086, 'BLAINE 1 3  ',       138, 1,    1,    1, 1,   1.0300854,  -38.125976,  1.1,  0.9,  1.1,  0.9
 10087, 'PORT LUDLOW ',       138, 1,    1,    1, 1,   1.0159507,  -39.839459,  1.1,  0.9,  1.1,  0.9
 10088, 'PORT ORCHARD',       138, 1,    1,    1, 1,   1.0293828,   -39.37408,  1.1,  0.9,  1.1,  0.9
 10089, 'PORT ORCHARD',       138, 1,    1,    1, 1,    1.029255,  -39.393691,  1.1,  0.9,  1.1,  0.9
 10090, 'PORT ORCHARD',       138, 1,    1,    1, 1,   1.0239085,  -39.445412,  1.1,  0.9,  1.1,  0.9
 10091, 'RIDGEFIELD 1',       138, 1,    1,    1, 1,   1.0257154,  -33.716736,  1.1,  0.9,  1.1,  0.9
 10092, 'VANCOUVER 2 ',       138, 1,    1,    1, 1,   1.0251786,   -34.96772,  1.1,  0.9,  1.1,  0.9
 10093, 'VANCOUVER 3 ',       138, 1,    1,    1, 1,   1.0241716,  -35.703976,  1.1,  0.9,  1.1,  0.9
 10094, 'STEILACOOM 1',       138, 1,    1,    1, 1,   1.0245425,  -38.368017,  1.1,  0.9,  1.1,  0.9
 10095, 'STEILACOOM 2',       138, 1,    1,    1, 1,   1.0246287,  -38.358101,  1.1,  0.9,  1.1,  0.9
 10096, 'STEILACOOM 3',       138, 1,    1,    1, 1,   1.0244613,  -38.377859,  1.1,  0.9,  1.1,  0.9
 10097, 'WOODLAND 1 1',       138, 1,    1,    1, 1,   1.0266602,  -34.230127,  1.1,  0.9,  1.1,  0.9
 10098, 'DUPONT 1    ',       138, 1,    1,    1, 1,   1.0217068,  -35.309703,  1.1,  0.9,  1.1,  0.9
 10099, 'DUPONT 2    ',       138, 1,    1,    1, 1,   1.0218257,  -35.298217,  1.1,  0.9,  1.1,  0.9
 10100, 'VANCOUVER 4 ',       138, 1,    1,    1, 1,   1.0338955,  -35.540866,  1.1,  0.9,  1.1,  0.9
 10101, 'VANCOUVER 4 ',       138, 1,    1,    1, 1,   1.0340507,   -35.52283,  1.1,  0.9,  1.1,  0.9
 10102, 'VANCOUVER 4 ',       138, 1,    1,    1, 1,   1.0337126,   -35.56075,  1.1,  0.9,  1.1,  0.9
 10103, 'VANCOUVER 5 ',       138, 1,    1,    1, 1,   1.0284028,  -35.422526,  1.1,  0.9,  1.1,  0.9
 10104, 'VANCOUVER 5 ',       138, 1,    1,    1, 1,   1.0280648,  -35.452356,  1.1,  0.9,  1.1,  0.9
 10105, 'VANCOUVER 5 ',       138, 1,    1,    1, 1,   1.0287312,  -35.389824,  1.1,  0.9,  1.1,  0.9
 10106, 'ANACORTES 1 ',       138, 1,    1,    1, 1,   1.0192143,  -39.776461,  1.1,  0.9,  1.1,  0.9
 10107, 'COUPEVILLE 1',       138, 1,    1,    1, 1,   1.0245852,  -37.648532,  1.1,  0.9,  1.1,  0.9
 10108, 'COUPEVILLE 2',       138, 1,    1,    1, 1,   1.0246615,  -37.631602,  1.1,  0.9,  1.1,  0.9
 10109, 'COUPEVILLE 3',       138, 1,    1,    1, 1,   1.0245852,  -37.648532,  1.1,  0.9,  1.1,  0.9
 10110, 'ONALASKA 1  ',       138, 1,    1,    1, 1,   1.0311561,  -33.816421,  1.1,  0.9,  1.1,  0.9
 10111, 'ONALASKA 2  ',       138, 1,    1,    1, 1,   1.0312285,  -33.809593,  1.1,  0.9,  1.1,  0.9
 10112, 'RAINIER 1 1 ',       138, 1,    1,    1, 1,   1.0277943,  -34.460854,  1.1,  0.9,  1.1,  0.9
 10113, 'BREMERTON 3 ',       138, 1,    1,    1, 1,   1.0259636,  -38.991283,  1.1,  0.9,  1.1,  0.9
 10114, 'BREMERTON 3 ',       138, 1,    1,    1, 1,    1.025748,  -39.008558,  1.1,  0.9,  1.1,  0.9
 10115, 'BREMERTON 4 ',       138, 1,    1,    1, 1,   1.0251626,  -38.961182,  1.1,  0.9,  1.1,  0.9
 10116, 'OAK HARBOR 1',       138, 1,    1,    1, 1,   1.0362135,  -33.812278,  1.1,  0.9,  1.1,  0.9
 10117, 'OAK HARBOR 2',       345, 1,    1,    1, 1,   1.0371168,  -29.973999,  1.1,  0.9,  1.1,  0.9
 10118, 'OAK HARBOR 2',       138, 1,    1,    1, 1,   1.0360956,  -33.838935,  1.1,  0.9,  1.1,  0.9
 10119, 'OAK HARBOR 2',      13.8, 1,    1,    1, 1,   1.0362398,   -34.19728,  1.1,  0.9,  1.1,  0.9
 10120, 'OAK HARBOR 2',         1, 1,    1,    1, 1,   1.0362398,   -34.19728,  1.1,  0.9,  1.1,  0.9
 10121, 'POULSBO 1 1 ',       138, 1,    1,    1, 1,   1.0177915,  -38.974238,  1.1,  0.9,  1.1,  0.9
 10122, 'POULSBO 1 2 ',       138, 1,    1,    1, 1,   1.0174988,  -38.994027,  1.1,  0.9,  1.1,  0.9
 10123, 'POULSBO 2 1 ',       138, 1,    1,    1, 1,     1.01872,  -38.794751,  1.1,  0.9,  1.1,  0.9
 10124, 'POULSBO 2 2 ',       138, 1,    1,    1, 1,   1.0188713,  -38.773023,  1.1,  0.9,  1.1,  0.9
 10125, 'POULSBO 2 3 ',       138, 1,    1,    1, 1,   1.0185632,  -38.816167,  1.1,  0.9,  1.1,  0.9
 10126, 'POULSBO 2 4 ',       138, 1,    1,    1, 1,     1.01872,  -38.794751,  1.1,  0.9,  1.1,  0.9
 10127, 'BREMERTON 5 ',       345, 1,    1,    1, 1,   1.0194055,  -34.785477,  1.1,  0.9,  1.1,  0.9
 10128, 'BREMERTON 5 ',       138, 1,    1,    1, 1,   1.0349271,  -38.678305,  1.1,  0.9,  1.1,  0.9
 10129, 'VANCOUVER 6 ',       138, 1,    1,    1, 1,    1.034663,  -35.348336,  1.1,  0.9,  1.1,  0.9
 10130, 'VANCOUVER 7 ',       138, 1,    1,    1, 1,   1.0211984,   -35.08454,  1.1,  0.9,  1.1,  0.9
 10131, 'VANCOUVER 8 ',       138, 1,    1,    1, 1,   1.0287552,  -35.358406,  1.1,  0.9,  1.1,  0.9
 10132, 'VANCOUVER 8 ',       138, 1,    1,    1, 1,   1.0285157,  -35.382846,  1.1,  0.9,  1.1,  0.9
 10133, 'GIG HARBOR 2',       138, 1,    1,    1, 1,   1.0242636,  -38.318841,  1.1,  0.9,  1.1,  0.9
 10134, 'GIG HARBOR 2',       138, 1,    1,    1, 1,   1.0239863,  -38.357531,  1.1,  0.9,  1.1,  0.9
 10135, 'FERNDALE 1 1',       138, 1,    1,    1, 1,   1.0312205,  -37.929885,  1.1,  0.9,  1.1,  0.9
 10136, 'FERNDALE 1 2',       138, 1,    1,    1, 1,    1.031523,  -37.894015,  1.1,  0.9,  1.1,  0.9
 10137, 'LA CENTER 1 ',       138, 1,    1,    1, 1,    1.025873,  -34.068553,  1.1,  0.9,  1.1,  0.9
 10138, 'GIG HARBOR 3',       138, 1,    1,    1, 1,   1.0245317,  -39.476173,  1.1,  0.9,  1.1,  0.9
 10139, 'TACOMA 1 1  ',       138, 1,    1,    1, 1,   1.0595043,   -36.36937,  1.1,  0.9,  1.1,  0.9
 10140, 'PORT ORCHARD',       138, 1,    1,    1, 1,   1.0205742,  -38.999097,  1.1,  0.9,  1.1,  0.9
 10141, 'PORT ORCHARD',       138, 1,    1,    1, 1,   1.0202832,  -39.022624,  1.1,  0.9,  1.1,  0.9
 10142, 'PORT ORCHARD',       138, 1,    1,    1, 1,   1.0175076,   -39.26695,  1.1,  0.9,  1.1,  0.9
 10143, 'PORT ORCHARD',       138, 1,    1,    1, 1,   1.0176258,  -39.241299,  1.1,  0.9,  1.1,  0.9
 10144, 'PORT ORCHARD',       138, 1,    1,    1, 1,   1.0175076,   -39.26695,  1.1,  0.9,  1.1,  0.9
 10145, 'VANCOUVER 9 ',       138, 1,    1,    1, 1,   1.0191744,   -34.50934,  1.1,  0.9,  1.1,  0.9
 10146, 'VANCOUVER 10',       138, 1,    1,    1, 1,   1.0198485,  -35.015836,  1.1,  0.9,  1.1,  0.9
 10147, 'VANCOUVER 10',       138, 1,    1,    1, 1,   1.0200417,  -34.993253,  1.1,  0.9,  1.1,  0.9
 10148, 'VANCOUVER 11',       138, 1,    1,    1, 1,   1.0260568,  -35.392693,  1.1,  0.9,  1.1,  0.9
 10149, 'OLALLA 1    ',       138, 1,    1,    1, 1,   1.0254475,  -39.581735,  1.1,  0.9,  1.1,  0.9
 10150, 'OLALLA 2    ',        18, 1,    1,    1, 1,   1.0168054,  -40.400752,  1.1,  0.9,  1.1,  0.9
 10151, 'OLALLA 3    ',        18, 1,    1,    1, 1,     1.02179,  -40.727861,  1.1,  0.9,  1.1,  0.9
 10152, 'OLALLA 4    ',         1, 1,    1,    1, 1,   1.0245018,  -39.728968,  1.1,  0.9,  1.1,  0.9
 10153, 'UNIVERSITY P',       138, 1,    1,    1, 1,   1.0241439,  -35.521611,  1.1,  0.9,  1.1,  0.9
 10154, 'LAKEWOOD 1 1',       138, 1,    1,    1, 1,   1.0580155,  -36.510186,  1.1,  0.9,  1.1,  0.9
 10155, 'LAKEWOOD 2 1',       138, 1,    1,    1, 1,   1.0221174,  -35.479842,  1.1,  0.9,  1.1,  0.9
 10156, 'LAKEWOOD 2 2',       138, 1,    1,    1, 1,   1.0219881,  -35.499119,  1.1,  0.9,  1.1,  0.9
 10157, 'TACOMA 2 1  ',       138, 1,    1,    1, 1,   1.0366085,  -38.691661,  1.1,  0.9,  1.1,  0.9
 10158, 'TACOMA 2 2  ',       138, 1,    1,    1, 1,   1.0358222,  -38.662844,  1.1,  0.9,  1.1,  0.9
 10159, 'TACOMA 3 1  ',       138, 1,    1,    1, 1,   1.0290963,  -38.622225,  1.1,  0.9,  1.1,  0.9
 10160, 'BAINBRIDGE I',       138, 1,    1,    1, 1,   1.0143835,   -39.13101,  1.1,  0.9,  1.1,  0.9
 10161, 'KINGSTON 1  ',       138, 1,    1,    1, 1,   1.0221209,  -41.464357,  1.1,  0.9,  1.1,  0.9
 10162, 'KINGSTON 2  ',       138, 1,    1,    1, 1,   1.0219846,  -41.479494,  1.1,  0.9,  1.1,  0.9
 10163, 'KINGSTON 3  ',       138, 1,    1,    1, 1,   1.0222462,  -41.450146,  1.1,  0.9,  1.1,  0.9
 10164, 'ROY 1 1     ',       138, 1,    1,    1, 1,   1.0238143,  -35.618254,  1.1,  0.9,  1.1,  0.9
 10165, 'TACOMA 4 1  ',       138, 1,    1,    1, 1,   1.0163883,  -39.773845,  1.1,  0.9,  1.1,  0.9
 10166, 'TACOMA 4 2  ',       138, 1,    1,    1, 1,   1.0162035,  -39.803841,  1.1,  0.9,  1.1,  0.9
 10167, 'VANCOUVER 12',       138, 1,    1,    1, 1,   1.0381633,  -35.103536,  1.1,  0.9,  1.1,  0.9
 10168, 'VANCOUVER 13',       138, 1,    1,    1, 1,   1.0316972,  -35.311606,  1.1,  0.9,  1.1,  0.9
 10169, 'LAKEWOOD 3 1',       138, 1,    1,    1, 1,   1.0258799,  -35.733086,  1.1,  0.9,  1.1,  0.9
 10170, 'LAKEWOOD 3 2',       138, 1,    1,    1, 1,   1.0258332,  -35.741176,  1.1,  0.9,  1.1,  0.9
 10171, 'TACOMA 5 1  ',       138, 1,    1,    1, 1,   1.0190226,  -38.613559,  1.1,  0.9,  1.1,  0.9
 10172, 'BATTLE GROUN',       138, 1,    1,    1, 1,   1.0227985,  -34.045764,  1.1,  0.9,  1.1,  0.9
 10173, 'BATTLE GROUN',       138, 1,    1,    1, 1,   1.0229568,  -34.021428,  1.1,  0.9,  1.1,  0.9
 10174, 'BATTLE GROUN',       138, 1,    1,    1, 1,   1.0226317,  -34.071844,  1.1,  0.9,  1.1,  0.9
 10175, 'BATTLE GROUN',       138, 1,    1,    1, 1,   1.0243398,  -33.404556,  1.1,  0.9,  1.1,  0.9
 10176, 'BATTLE GROUN',       138, 1,    1,    1, 1,   1.0245927,  -33.379987,  1.1,  0.9,  1.1,  0.9
 10177, 'VANCOUVER 14',       138, 1,    1,    1, 1,   1.0387846,  -34.873806,  1.1,  0.9,  1.1,  0.9
 10178, 'VANCOUVER 15',       138, 1,    1,    1, 1,   1.0232512,  -35.187729,  1.1,  0.9,  1.1,  0.9
 10179, 'BELLINGHAM 1',       138, 1,    1,    1, 1,   1.0309787,  -38.077904,  1.1,  0.9,  1.1,  0.9
 10180, 'BELLINGHAM 2',       138, 1,    1,    1, 1,   1.0309945,  -37.885481,  1.1,  0.9,  1.1,  0.9
 10181, 'BELLINGHAM 2',       138, 1,    1,    1, 1,   1.0311672,  -37.855068,  1.1,  0.9,  1.1,  0.9
 10182, 'BELLINGHAM 2',       138, 1,    1,    1, 1,   1.0308317,  -37.918544,  1.1,  0.9,  1.1,  0.9
 10183, 'LAKEWOOD 4 1',       138, 1,    1,    1, 1,   1.0214786,  -38.544159,  1.1,  0.9,  1.1,  0.9
 10184, 'LAKEWOOD 5 1',       138, 1,    1,    1, 1,   1.0391734,  -38.350568,  1.1,  0.9,  1.1,  0.9
 10185, 'LAKEWOOD 5 2',       138, 1,    1,    1, 1,    1.038682,  -38.387617,  1.1,  0.9,  1.1,  0.9
 10186, 'CAMANO ISLAN',       138, 1,    1,    1, 1,   1.0296091,  -35.492642,  1.1,  0.9,  1.1,  0.9
 10187, 'CAMANO ISLAN',       138, 1,    1,    1, 1,   1.0294303,  -35.513367,  1.1,  0.9,  1.1,  0.9
 10188, 'YELM 1      ',       138, 1,    1,    1, 1,   1.0307217,  -33.162378,  1.1,  0.9,  1.1,  0.9
 10189, 'YELM 2      ',       138, 1,    1,    1, 1,   1.0310525,  -33.132025,  1.1,  0.9,  1.1,  0.9
 10190, 'VANCOUVER 16',       138, 1,    1,    1, 1,   1.0199622,  -34.306139,  1.1,  0.9,  1.1,  0.9
 10191, 'VANCOUVER 16',       138, 1,    1,    1, 1,   1.0197114,  -34.344261,  1.1,  0.9,  1.1,  0.9
 10192, 'VANCOUVER 17',       345, 1,    1,    1, 1,   1.0097532,  -32.008878,  1.1,  0.9,  1.1,  0.9
 10193, 'VANCOUVER 17',       138, 1,    1,    1, 1,   1.0188744,  -34.672169,  1.1,  0.9,  1.1,  0.9
 10194, 'VANCOUVER 17',        24, 1,    1,    1, 1,   1.0188709,  -34.671273,  1.1,  0.9,  1.1,  0.9
 10195, 'VANCOUVER 17',         1, 1,    1,    1, 1,   1.0188709,  -34.671273,  1.1,  0.9,  1.1,  0.9
 10196, 'TACOMA 6 1  ',       345, 1,    1,    1, 1,    1.036513,  -32.165948,  1.1,  0.9,  1.1,  0.9
 10197, 'TACOMA 6 2  ',       138, 1,    1,    1, 1,   1.0635547,  -35.997317,  1.1,  0.9,  1.1,  0.9
 10198, 'TACOMA 6 3  ',       345, 1,    1,    1, 1,    1.036068,  -32.192758,  1.1,  0.9,  1.1,  0.9
 10199, 'VASHON 1    ',       138, 1,    1,    1, 1,   1.0178039,  -39.788112,  1.1,  0.9,  1.1,  0.9
 10200, 'TACOMA 7 1  ',       138, 1,    1,    1, 1,   1.0221392,  -38.849075,  1.1,  0.9,  1.1,  0.9
...
0 / END OF BUS DATA, BEGIN LOAD DATA
 10001,  1, 1,    1,    1,      9.64,      2.54, 0, 0, 0, 0, 1, 1, 0
 10002,  1, 1,    1,    1,     15.98,      6.04, 0, 0, 0, 0, 1, 1, 0
 10003,  1, 1,    1,    1,     14.39,      1.09, 0, 0, 0, 0, 1, 1, 0
 10005,  1, 1,    1,    1,     10.45,      2.75, 0, 0, 0, 0, 1, 1, 0
 10006,  1, 1,    1,    1,     13.44,      1.28, 0, 0, 0, 0, 1, 1, 0
 10009,  1, 1,    1,    1,     16.82,      2.59, 0, 0, 0, 0, 1, 1, 0
 10010,  1, 1,    1,    1,     33.49,     15.14, 0, 0, 0, 0, 1, 1, 0
 10011,  1, 1,    1,    1,     32.02,      8.17, 0, 0, 0, 0, 1, 1, 0
 10013,  1, 1,    1,    1,     57.79,     30.06, 0, 0, 0, 0, 1, 1, 0
 10015,  1, 1,    1,    1,     25.01,      11.8, 0, 0, 0, 0, 1, 1, 0
 10017,  1, 1,    1,    1,     25.89,      7.16, 0, 0, 0, 0, 1, 1, 0
 10018,  1, 1,    1,    1,     24.47,      6.19, 0, 0, 0, 0, 1, 1, 0
 10020,  1, 1,    1,    1,     53.35,      4.54, 0, 0, 0, 0, 1, 1, 0
 10021,  1, 1,    1,    1,      8.99,      2.13, 0, 0, 0, 0, 1, 1, 0
 10022,  1, 1,    1,    1,     48.19,     15.92, 0, 0, 0, 0, 1, 1, 0
 10024,  1, 1,    1,    1,     43.96,      8.97, 0, 0, 0, 0, 1, 1, 0
 10025,  1, 1,    1,    1,     30.89,     12.76, 0, 0, 0, 0, 1, 1, 0
 10026,  1, 1,    1,    1,     18.65,      4.97, 0, 0, 0, 0, 1, 1, 0
 10028,  1, 1,    1,    1,     32.23,     12.72, 0, 0, 0, 0, 1, 1, 0
 10029,  1, 1,    1,    1,     32.23,      1.85, 0, 0, 0, 0, 1, 1, 0
 10031,  1, 1,    1,    1,      39.8,      7.18, 0, 0, 0, 0, 1, 1, 0
 10032,  1, 1,    1,    1,      41.5,      5.68, 0, 0, 0, 0, 1, 1, 0
 10033,  1, 1,    1,    1,     59.05,      6.96, 0, 0, 0, 0, 1, 1, 0
 10035,  1, 1,    1,    1,     59.05,     42.65, 0, 0, 0, 0, 1, 1, 0
 10037,  1, 1,    1,    1,     58.29,     11.32, 0, 0, 0, 0, 1, 1, 0
 10038,  1, 1,    1,    1,     36.59,     13.17, 0, 0, 0, 0, 1, 1, 0
 10040,  1, 1,    1,    1,     43.57,     13.69, 0, 0, 0, 0, 1, 1, 0
 10041,  1, 1,    1,    1,     20.08,      9.93, 0, 0, 0, 0, 1, 1, 0
 10042,  1, 1,    1,    1,     59.25,     11.36, 0, 0, 0, 0, 1, 1, 0
 10044,  1, 1,    1,    1,     37.54,      1.74, 0, 0, 0, 0, 1, 1, 0
 10045,  1, 1,    1,    1,     25.35,     12.91, 0, 0, 0, 0, 1, 1, 0
 10047,  1, 1,    1,    1,     45.76,      5.94, 0, 0, 0, 0, 1, 1, 0
 10048,  1, 1,    1,    1,     45.76,     10.24, 0, 0, 0, 0, 1, 1, 0
 10052,  1, 1,    1,    1,     17.51,      1.94, 0, 0, 0, 0, 1, 1, 0
 10053,  1, 1,    1,    1,     43.68,      4.56, 0, 0, 0, 0, 1, 1, 0
 10054,  1, 1,    1,    1,     43.32,     16.13, 0, 0, 0, 0, 1, 1, 0
 10055,  1, 1,    1,    1,     17.57,      5.16, 0, 0, 0, 0, 1, 1, 0
 10058,  1, 1,    1,    1,     43.93,      8.14, 0, 0, 0, 0, 1, 1, 0
 10060,  1, 1,    1,    1,     43.93,     27.62, 0, 0, 0, 0, 1, 1, 0
 10061,  1, 1,    1,    1,     51.07,     18.71, 0, 0, 0, 0, 1, 1, 0
 10064,  1, 1,    1,    1,     36.24,       9.3, 0, 0, 0, 0, 1, 1, 0
 10065,  1, 1,    1,    1,     46.26,      6.82, 0, 0, 0, 0, 1, 1, 0
 10069,  1, 1,    1,    1,     58.86,     14.48, 0, 0, 0, 0, 1, 1, 0
 10070,  1, 1,    1,    1,     11.07,      0.16, 0, 0, 0, 0, 1, 1, 0
 10071,  1, 1,    1,    1,     38.37,     10.34, 0, 0, 0, 0, 1, 1, 0
 10073,  1, 1,    1,    1,     38.37,     20.18, 0, 0, 0, 0, 1, 1, 0
 10075,  1, 1,    1,    1,     14.72,      4.64, 0, 0, 0, 0, 1, 1, 0
 10076,  1, 1,    1,    1,     27.96,      2.98, 0, 0, 0, 0, 1, 1, 0
 10077,  1, 1,    1,    1,     28.46,      7.93, 0, 0, 0, 0, 1, 1, 0
 10079,  1, 1,    1,    1,     55.86,     12.51, 0, 0, 0, 0, 1, 1, 0
 10083,  1, 1,    1,    1,     22.32,      8.77, 0, 0, 0, 0, 1, 1, 0
 10085,  1, 1,    1,    1,     40.86,      5.87, 0, 0, 0, 0, 1, 1, 0
 10087,  1, 1,    1,    1,     10.87,      8.58, 0, 0, 0, 0, 1, 1, 0
 10089,  1, 1,    1,    1,     33.23,      4.19, 0, 0, 0, 0, 1, 1, 0
 10090,  1, 1,    1,    1,     33.23,      6.75, 0, 0, 0, 0, 1, 1, 0
 10091,  1, 1,    1,    1,     37.67,       4.7, 0, 0, 0, 0, 1, 1, 0
 10092,  1, 1,    1,    1,     31.46,       1.7, 0, 0, 0, 0, 1, 1, 0
 10093,  1, 1,    1,    1,     31.46,     11.16, 0, 0, 0, 0, 1, 1, 0
 10096,  1, 1,    1,    1,     18.02,      4.43, 0, 0, 0, 0, 1, 1, 0
 10097,  1, 1,    1,    1,     31.02,      5.28, 0, 0, 0, 0, 1, 1, 0
 10098,  1, 1,    1,    1,     19.84,       5.6, 0, 0, 0, 0, 1, 1, 0
 10102,  1, 1,    1,    1,     33.88,      8.27, 0, 0, 0, 0, 1, 1, 0
 10104,  1, 1,    1,    1,     57.74,      17.1, 0, 0, 0, 0, 1, 1, 0
 10106,  1, 1,    1,    1,     51.34,     13.64, 0, 0, 0, 0, 1, 1, 0
 10107,  1, 1,    1,    1,     26.95,      1.82, 0, 0, 0, 0, 1, 1, 0
 10110,  1, 1,    1,    1,     12.48,      4.31, 0, 0, 0, 0, 1, 1, 0
 10112,  1, 1,    1,    1,      11.2,       2.7, 0, 0, 0, 0, 1, 1, 0
 10114,  1, 1,    1,    1,     31.06,     13.53, 0, 0, 0, 0, 1, 1, 0
 10115,  1, 1,    1,    1,     31.06,     11.74, 0, 0, 0, 0, 1, 1, 0
 10116,  1, 1,    1,    1,     47.94,      5.39, 0, 0, 0, 0, 1, 1, 0
 10118,  1, 1,    1,    1,     45.39,     21.63, 0, 0, 0, 0, 1, 1, 0
 10122,  1, 1,    1,    1,     35.43,     19.18, 0, 0, 0, 0, 1, 1, 0
 10125,  1, 1,    1,    1,     35.43,      7.06, 0, 0, 0, 0, 1, 1, 0
 10128,  1, 1,    1,    1,     44.89,     16.27, 0, 0, 0, 0, 1, 1, 0
 10129,  1, 1,    1,    1,     50.09,     14.75, 0, 0, 0, 0, 1, 1, 0
 10130,  1, 1,    1,    1,     50.09,     14.37, 0, 0, 0, 0, 1, 1, 0
 10132,  1, 1,    1,    1,     41.72,     12.38, 0, 0, 0, 0, 1, 1, 0
 10134,  1, 1,    1,    1,     71.03,      8.23, 0, 0, 0, 0, 1, 1, 0
 10135,  1, 1,    1,    1,     61.01,     13.93, 0, 0, 0, 0, 1, 1, 0
 10137,  1, 1,    1,    1,     20.07,      5.15, 0, 0, 0, 0, 1, 1, 0
 10138,  1, 1,    1,    1,     38.05,      7.43, 0, 0, 0, 0, 1, 1, 0
 10139,  1, 1,    1,    1,        35,      8.78, 0, 0, 0, 0, 1, 1, 0
 10140,  1, 1,    1,    1,     16.07,      5.79, 0, 0, 0, 0, 1, 1, 0
 10141,  1, 1,    1,    1,     41.11,     16.66, 0, 0, 0, 0, 1, 1, 0
 10142,  1, 1,    1,    1,     41.11,      1.31, 0, 0, 0, 0, 1, 1, 0
 10145,  1, 1,    1,    1,     37.97,      9.24, 0, 0, 0, 0, 1, 1, 0
 10146,  1, 1,    1,    1,     37.97,       9.3, 0, 0, 0, 0, 1, 1, 0
 10148,  1, 1,    1,    1,     52.25,     24.72, 0, 0, 0, 0, 1, 1, 0
 10150,  1, 1,    1,    1,      7.99,      4.67, 0, 0, 0, 0, 1, 1, 0
 10151,  1, 1,    1,    1,     11.73,      1.24, 0, 0, 0, 0, 1, 1, 0
 10153,  1, 1,    1,    1,     35.35,      3.89, 0, 0, 0, 0, 1, 1, 0
 10154,  1, 1,    1,    1,     33.06,     13.11, 0, 0, 0, 0, 1, 1, 0
 10156,  1, 1,    1,    1,     33.52,      4.02, 0, 0, 0, 0, 1, 1, 0
 10157,  1, 1,    1,    1,     32.33,     10.35, 0, 0, 0, 0, 1, 1, 0
 10159,  1, 1,    1,    1,     15.22,      4.81, 0, 0, 0, 0, 1, 1, 0
 10160,  1, 1,    1,    1,     55.26,     20.75, 0, 0, 0, 0, 1, 1, 0
 10162,  1, 1,    1,    1,      25.6,      5.53, 0, 0, 0, 0, 1, 1, 0
 10164,  1, 1,    1,    1,     26.64,      6.54, 0, 0, 0, 0, 1, 1, 0
 10166,  1, 1,    1,    1,     47.72,       5.4, 0, 0, 0, 0, 1, 1, 0
 10167,  1, 1,    1,    1,     32.36,     10.77, 0, 0, 0, 0, 1, 1, 0
 10168,  1, 1,    1,    1,     32.36,     10.63, 0, 0, 0, 0, 1, 1, 0
 10170,  1, 1,    1,    1,     14.51,      0.92, 0, 0, 0, 0, 1, 1, 0
 10171,  1, 1,    1,    1,     51.86,      8.23, 0, 0, 0, 0, 1, 1, 0
 10174,  1, 1,    1,    1,     41.08,      5.55, 0, 0, 0, 0, 1, 1, 0
 10175,  1, 1,    1,    1,     41.08,     12.71, 0, 0, 0, 0, 1, 1, 0
 10177,  1, 1,    1,    1,        37,     12.28, 0, 0, 0, 0, 1, 1, 0
 10178,  1, 1,    1,    1,        37,      6.33, 0, 0, 0, 0, 1, 1, 0
 10179,  1, 1,    1,    1,     55.41,      4.59, 0, 0, 0, 0, 1, 1, 0
 10180,  1, 1,    1,    1,      1.46,      0.56, 0, 0, 0, 0, 1, 1, 0
 10182,  1, 1,    1,    1,     55.41,       4.8, 0, 0, 0, 0, 1, 1, 0
 10183,  1, 1,    1,    1,     48.59,      5.25, 0, 0, 0, 0, 1, 1, 0
 10185,  1, 1,    1,    1,     68.06,     27.25, 0, 0, 0, 0, 1, 1, 0
 10187,  1, 1,    1,    1,     37.59,      7.22, 0, 0, 0, 0, 1, 1, 0
 10188,  1, 1,    1,    1,     51.74,     17.55, 0, 0, 0, 0, 1, 1, 0
 10191,  1, 1,    1,    1,     63.47,      6.05, 0, 0, 0, 0, 1, 1, 0
 10193,  1, 1,    1,    1,     63.47,     25.63, 0, 0, 0, 0, 1, 1, 0
 10198,  1, 1,    1,    1,     55.17,     29.09, 0, 0, 0, 0, 1, 1, 0
 10199,  1, 1,    1,    1,     25.51,     11.27, 0, 0, 0, 0, 1, 1, 0
 10200,  1, 1,    1,    1,     57.98,     19.56, 0, 0, 0, 0, 1, 1, 0
 10201,  1, 1,    1,    1,     45.34,      7.86, 0, 0, 0, 0, 1, 1, 0
 10202,  1, 1,    1,    1,     21.66,      3.34, 0, 0, 0, 0, 1, 1, 0
 10204,  1, 1,    1,    1,     12.67,      2.56, 0, 0, 0, 0, 1, 1, 0
 10206,  1, 1,    1,    1,     40.75,      8.43, 0, 0, 0, 0, 1, 1, 0
 10207,  1, 1,    1,    1,     40.75,      6.92, 0, 0, 0, 0, 1, 1, 0
 10208,  1, 1,    1,    1,     24.17,       6.6, 0, 0, 0, 0, 1, 1, 0
 10209,  1, 1,    1,    1,     81.39,     49.51, 0, 0, 0, 0, 1, 1, 0
 10210,  1, 1,    1,    1,     49.48,     10.28, 0, 0, 0, 0, 1, 1, 0
 10211,  1, 1,    1,    1,     49.48,     11.08, 0, 0, 0, 0, 1, 1, 0
 10214,  1, 1,    1,    1,     12.52,      3.35, 0, 0, 0, 0, 1, 1, 0
 10215,  1, 1,    1,    1,     36.39,      3.34, 0, 0, 0, 0, 1, 1, 0
 10217,  1, 1,    1,    1,     36.39,      3.13, 0, 0, 0, 0, 1, 1, 0
 10218,  1, 1,    1,    1,     30.67,      6.45, 0, 0, 0, 0, 1, 1, 0
 10219,  1, 1,    1,    1,      38.5,     11.16, 0, 0, 0, 0, 1, 1, 0
 10221,  1, 1,    1,    1,      38.5,      7.16, 0, 0, 0, 0, 1, 1, 0
 10223,  1, 1,    1,    1,      9.41,      2.94, 0, 0, 0, 0, 1, 1, 0
 10225,  1, 1,    1,    1,     35.59,     23.47, 0, 0, 0, 0, 1, 1, 0
 10226,  1, 1,    1,    1,     35.59,     19.12, 0, 0, 0, 0, 1, 1, 0
 10227,  1, 1,    1,    1,     47.25,     13.43, 0, 0, 0, 0, 1, 1, 0
 10228,  1, 1,    1,    1,     53.38,     19.97, 0, 0, 0, 0, 1, 1, 0
 10229,  1, 1,    1,    1,     35.45,      4.71, 0, 0, 0, 0, 1, 1, 0
 10230,  1, 1,    1,    1,     51.81,     10.71, 0, 0, 0, 0, 1, 1, 0
 10231,  1, 1,    1,    1,     51.81,     15.83, 0, 0, 0, 0, 1, 1, 0
 10232,  1, 1,    1,    1,     48.36,     11.43, 0, 0, 0, 0, 1, 1, 0
 10234,  1, 1,    1,    1,     37.64,      3.83, 0, 0, 0, 0, 1, 1, 0
 10236,  1, 1,    1,    1,     37.64,     13.28, 0, 0, 0, 0, 1, 1, 0
 10237,  1, 1,    1,    1,     33.48,      6.19, 0, 0, 0, 0, 1, 1, 0
 10238,  1, 1,    1,    1,     33.48,      8.37, 0, 0, 0, 0, 1, 1, 0
 10239,  1, 1,    1,    1,     50.01,      9.84, 0, 0, 0, 0, 1, 1, 0
 10241,  1, 1,    1,    1,     50.75,     10.16, 0, 0, 0, 0, 1, 1, 0
 10243,  1, 1,    1,    1,     45.67,      5.61, 0, 0, 0, 0, 1, 1, 0
 10244,  1, 1,    1,    1,     34.46,      5.65, 0, 0, 0, 0, 1, 1, 0
 10245,  1, 1,    1,    1,     34.46,      8.68, 0, 0, 0, 0, 1, 1, 0
 10247,  1, 1,    1,    1,     41.16,      3.94, 0, 0, 0, 0, 1, 1, 0
 10248,  1, 1,    1,    1,     43.93,     29.92, 0, 0, 0, 0, 1, 1, 0
 10249,  1, 1,    1,    1,     50.49,      5.58, 0, 0, 0, 0, 1, 1, 0
 10250,  1, 1,    1,    1,     57.01,     12.84, 0, 0, 0, 0, 1, 1, 0
 10251,  1, 1,    1,    1,     57.01,     22.38, 0, 0, 0, 0, 1, 1, 0
 10252,  1, 1,    1,    1,     31.11,      9.46, 0, 0, 0, 0, 1, 1, 0
 10254,  1, 1,    1,    1,     31.11,     19.53, 0, 0, 0, 0, 1, 1, 0
 10257,  1, 1,    1,    1,     24.34,     12.59, 0, 0, 0, 0, 1, 1, 0
 10259,  1, 1,    1,    1,     48.72,      8.04, 0, 0, 0, 0, 1, 1, 0
 10260,  1, 1,    1,    1,     30.31,     12.35, 0, 0, 0, 0, 1, 1, 0
 10262,  1, 1,    1,    1,      54.9,     12.07, 0, 0, 0, 0, 1, 1, 0
 10263,  1, 1,    1,    1,     35.69,      9.54, 0, 0, 0, 0, 1, 1, 0
 10266,  1, 1,    1,    1,     49.72,      2.39, 0, 0, 0, 0, 1, 1, 0
 10267,  1, 1,    1,    1,     23.27,      4.11, 0, 0, 0, 0, 1, 1, 0
 10269,  1, 1,    1,    1,     53.47,     13.72, 0, 0, 0, 0, 1, 1, 0
 10271,  1, 1,    1,    1,     53.47,      7.16, 0, 0, 0, 0, 1, 1, 0
 10272,  1, 1,    1,    1,     55.09,      7.78, 0, 0, 0, 0, 1, 1, 0
 10273,  1, 1,    1,    1,     55.09,     20.54, 0, 0, 0, 0, 1, 1, 0
 10274,  1, 1,    1,    1,     24.57,      5.95, 0, 0, 0, 0, 1, 1, 0
 10276,  1, 1,    1,    1,     43.11,     11.41, 0, 0, 0, 0, 1, 1, 0
 10277,  1, 1,    1,    1,     44.92,     20.45, 0, 0, 0, 0, 1, 1, 0
 10279,  1, 1,    1,    1,     28.63,      8.04, 0, 0, 0, 0, 1, 1, 0
 10283,  1, 1,    1,    1,     32.97,      7.88, 0, 0, 0, 0, 1, 1, 0
 10285,  1, 1,    1,    1,     24.02,      1.73, 0, 0, 0, 0, 1, 1, 0
 10286,  1, 1,    1,    1,     53.39,        18, 0, 0, 0, 0, 1, 1, 0
 10288,  1, 1,    1,    1,     49.12,      9.58, 0, 0, 0, 0, 1, 1, 0
 10289,  1, 1,    1,    1,     32.24,       3.8, 0, 0, 0, 0, 1, 1, 0
 10290,  1, 1,    1,    1,     32.24,      4.22, 0, 0, 0, 0, 1, 1, 0
 10292,  1, 1,    1,    1,     49.81,      3.13, 0, 0, 0, 0, 1, 1, 0
 10293,  1, 1,    1,    1,     52.98,     28.47, 0, 0, 0, 0, 1, 1, 0
 10294,  1, 1,    1,    1,     52.98,     12.34, 0, 0, 0, 0, 1, 1, 0
 10296,  1, 1,    1,    1,     56.71,      7.15, 0, 0, 0, 0, 1, 1, 0
 10299,  1, 1,    1,    1,      41.5,     28.64, 0, 0, 0, 0, 1, 1, 0
 10301,  1, 1,    1,    1,     50.57,      7.59, 0, 0, 0, 0, 1, 1, 0
 10305,  1, 1,    1,    1,     47.86,     19.46, 0, 0, 0, 0, 1, 1, 0
 10306,  1, 1,    1,    1,     60.83,     25.54, 0, 0, 0, 0, 1, 1, 0
 10307,  1, 1,    1,    1,     48.61,     20.93, 0, 0, 0, 0, 1, 1, 0
 10309,  1, 1,    1,    1,     39.33,     13.63, 0, 0, 0, 0, 1, 1, 0
 10310,  1, 1,    1,    1,     39.33,      5.55, 0, 0, 0, 0, 1, 1, 0
 10312,  1, 1,    1,    1,     40.48,     22.08, 0, 0, 0, 0, 1, 1, 0
 10314,  1, 1,    1,    1,     40.48,      8.05, 0, 0, 0, 0, 1, 1, 0
 10315,  1, 1,    1,    1,      44.5,      8.52, 0, 0, 0, 0, 1, 1, 0
 10316,  1, 1,    1,    1,      44.5,      7.51, 0, 0, 0, 0, 1, 1, 0
 10318,  1, 1,    1,    1,     37.74,      7.21, 0, 0, 0, 0, 1, 1, 0
 10320,  1, 1,    1,    1,     37.74,      9.18, 0, 0, 0, 0, 1, 1, 0
 10321,  1, 1,    1,    1,     32.26,     13.89, 0, 0, 0, 0, 1, 1, 0
 10322,  1, 1,    1,    1,     32.26,      6.52, 0, 0, 0, 0, 1, 1, 0
 10323,  1, 1,    1,    1,     50.58,     11.16, 0, 0, 0, 0, 1, 1, 0
...
0 / END OF LOAD DATA, BEGIN FIXED SHUNT DATA
 10020, 1, 1,       0,      32
 10061, 1, 1,       0,      22
 10157, 1, 1,       0,      80
 10218, 1, 1,       0,      90
 10229, 1, 1,       0,      50
 10242, 1, 1,       0,      60
 10302, 1, 1,       0,      50
 10314, 1, 1,       0,    93.5
 10354, 1, 1,       0,     100
 10398, 1, 1,       0,      60
 10426, 1, 1,       0,      56
 10430, 1, 1,       0,      48
 10441, 1, 1,       0,    60.5
 10484, 1, 1,       0,      31
 10598, 1, 1,       0,     -28
 10707, 1, 1,       0,    -324
 10717, 1, 1,       0,   -1538
 10734, 1, 1,       0,     440
 10739, 1, 1,       0,    -256
 10756, 1, 1,       0,    -109
 10766, 1, 1,       0,    -105
 10789, 1, 1,       0,     -90
 10808, 1, 1,       0,    -254
 10824, 1, 1,       0,    -476
 10916, 1, 1,       0,    -666
 10953, 1, 1,       0,      46
 10970, 1, 1,       0,    -202
 11000, 1, 1,       0,    -776
 11011, 1, 1,       0,   -1746
 11027, 1, 1,       0,  -177.5
 11038, 1, 1,       0,    -384
 11051, 1, 1,       0,     -29
 13002, 1, 1,       0,      10
 13011, 1, 1,       0,      46
 13048, 1, 1,       0,   -12.5
 13070, 1, 1,       0,      48
 13081, 1, 1,       0,      18
 13106, 1, 1,       0,      56
 13202, 1, 1,       0,      70
 13226, 1, 1,       0,      60
 13229, 1, 1,       0,     110
 13242, 1, 1,       0,      59
 13297, 1, 1,       0,     -92
 13385, 1, 1,       0,     -30
 13405, 1, 1,       0,      -8
 13407, 1, 1,       0,     -28
 13412, 1, 1,       0,     -10
 13421, 1, 1,       0,     -30
 13442, 1, 1,       0,     -14
 13453, 1, 1,       0,     -85
 13459, 1, 1,       0,    -296
 13470, 1, 1,       0,   -1424
 13496, 1, 1,       0, -1148.5
 13506, 1, 1,       0,    -290
 13523, 1, 1,       0,    -720
 13554, 1, 1,       0,   -1200
 13571, 1, 1,       0,     100
 13580, 1, 1,       0,    -800
 13594, 1, 1,       0,    -420
 13656, 1, 1,       0,     -71
 13681, 1, 1,       0,    -408
 13695, 1, 1,       0,    -250
 20022, 1, 1,       0,     -90
 20156, 1, 1,       0,     -10
 20176, 1, 1,       0,     140
 20240, 1, 1,       0,   118.5
 20243, 1, 1,       0,     -78
 20291, 1, 1,       0,  -491.5
 20296, 1, 1,       0,    -346
 20308, 1, 1,       0,    -280
 20316, 1, 1,       0,    -720
 20365, 1, 1,       0,    -122
 20374, 1, 1,       0,    -448
 20387, 1, 1,       0,   -1322
 20423, 1, 1,       0,    -660
 20433, 1, 1,       0,      27
 20436, 1, 1,       0,   -1054
 20476, 1, 1,       0,    -306
 20480, 1, 1,       0,    -196
 20484, 1, 1,       0,    -282
 20497, 1, 1,       0,      63
 20530, 1, 1,       0,    -350
 21075, 1, 1,       0,      34
 21095, 1, 1,       0,      73
 21105, 1, 1,       0,     120
 21136, 1, 1,       0,     107
 21143, 1, 1,       0,     118
 21245, 1, 1,       0,     142
 21372, 1, 1,       0,      26
 21373, 1, 1,       0,      70
 21380, 1, 1,       0,     118
 21593, 1, 1,       0,   -1260
 23070, 1, 1,       0,     102
 23284, 1, 1,       0,    -966
 23331, 1, 1,       0,     -80
 23391, 1, 1,       0,  -153.5
 23412, 1, 1,       0,    -908
 23424, 1, 1,       0,     -52
 23442, 1, 1,       0,    -218
 23450, 1, 1,       0,    -360
 25224, 1, 1,       0,      42
 25269, 1, 1,       0,      30
 25634, 1, 1,       0,     204
 25661, 1, 1,       0,      88
 25674, 1, 1,       0,     176
 25901, 1, 1,       0,    -700
 26035, 1, 1,       0,    -494
 26058, 1, 1,       0,     840
 26094, 1, 1,       0,    1780
 26130, 1, 1,       0,    -504
 26152, 1, 1,       0,     483
 26160, 1, 1,       0,   -1842
 26194, 1, 1,       0,    -534
 28023, 1, 1,       0,   -1236
 28183, 1, 1,       0,     -30
 28327, 1, 1,       0,      54
 28330, 1, 1,       0,   -17.5
 28350, 1, 1,       0,      36
 28385, 1, 1,       0,      30
 28570, 1, 1,       0,     103
 28758, 1, 1,       0,    -670
 28762, 1, 1,       0,    -294
 28794, 1, 1,       0,     230
 28803, 1, 1,       0,     5.5
 28847, 1, 1,       0,     -82
 28879, 1, 1,       0,    -520
 28911, 1, 1,       0,    -522
 28945, 1, 1,       0,      99
 29015, 1, 1,       0,    -140
 29024, 1, 1,       0,      32
 30030, 1, 1,       0,     114
 30065, 1, 1,       0,     -24
 30075, 1, 1,       0,    -124
 30088, 1, 1,       0,     -10
 30093, 1, 1,       0,  -322.5
 30100, 1, 1,       0,     -14
 30243, 1, 1,       0,     -14
 30246, 1, 1,       0,      20
 30248, 1, 1,       0,   -17.5
 30261, 1, 1,       0,     -30
 30271, 1, 1,       0,    -298
 30278, 1, 1,       0,     -42
 30288, 1, 1,       0,     -72
 30313, 1, 1,       0,    -810
 30362, 1, 1,       0,    -166
 30369, 1, 1,       0,    -611
 30382, 1, 1,       0,    -280
 30387, 1, 1,       0,    -910
 30399, 1, 1,       0,     -98
 30437, 1, 1,       0,    -505
 30458, 1, 1,       0,  -137.5
 40000, 1, 1,       0,      14
 40033, 1, 1,       0,    -250
 40074, 1, 1,       0,     -77
 40099, 1, 1,       0,      22
 40107, 1, 1,       0,      80
 40248, 1, 1,       0,    12.5
 40254, 1, 1,       0,    -228
 40260, 1, 1,       0,    -440
 40345, 1, 1,       0,     150
 40407, 1, 1,       0,      60
 40428, 1, 1,       0,     -49
 40461, 1, 1,       0,      10
 40507, 1, 1,       0,     -41
 40520, 1, 1,       0,     150
 40597, 1, 1,       0,      24
 40623, 1, 1,       0,    -300
 40630, 1, 1,       0,      -5
 40631, 1, 1,       0,    -108
 40639, 1, 1,       0,      36
 40655, 1, 1,       0,    -390
 40666, 1, 1,       0,    -156
 40668, 1, 1,       0,  -365.5
 40698, 1, 1,       0,    -170
 40713, 1, 1,       0,     -28
 40729, 1, 1,       0,    -330
 40760, 1, 1,       0,    -714
 40765, 1, 1,       0,    -524
 40809, 1, 1,       0,     -70
 40819, 1, 1,       0,    -420
 40840, 1, 1,       0,     200
 40875, 1, 1,       0,    -404
 40890, 1, 1,       0,    -160
 40898, 1, 1,       0,    -700
 40922, 1, 1,       0,    -391
 40931, 1, 1,       0,   -1022
 40956, 1, 1,       0,     -60
 40967, 1, 1,       0,      80
 40979, 1, 1,       0,    -316
 41006, 1, 1,       0,    -310
 50001, 1, 1,       0,     -30
 50019, 1, 1,       0,    -260
 50070, 1, 1,       0,      -8
 50116, 1, 1,       0,     720
 50163, 1, 1,       0,     147
 50209, 1, 1,       0,     -17
 50239, 1, 1,       0,     -28
 50268, 1, 1,       0,     -38
 50279, 1, 1,       0,     -21
 50337, 1, 1,       0,  -207.5
...
0 / END OF FIXED SHUNT DATA, BEGIN GENERATOR DATA
 10683,  1,         0,         0,     61.16,      -7.8,   1.0464, 0,  207.74, 0, 1, 0, 0, 1, 0, 100,    159.27,     52.01, 1, 1, 0, 1, 0, 1, 0, 1, 0, 1
 10684,  1,     85.29,     58.95,     61.16,      -7.8,   1.0203, 0,  201.13, 0, 1, 0, 0, 1, 1, 100,     85.29,     85.29, 1, 1, 0, 1, 0, 1, 0, 1, 0, 1
 10685,  1,    138.65,     58.95,     61.16,      -7.8,   1.0203, 0,  217.36, 0, 1, 0, 0, 1, 1, 100,    138.65,    138.65, 1, 1, 0, 1, 0, 1, 0, 1, 0, 1
 10686,  1,         0,         0,     61.16,      -7.8,   1.0464, 0,  214.15, 0, 1, 0, 0, 1, 0, 100,    159.27,     56.04, 1, 1, 0, 1, 0, 1, 0, 1, 0, 1
 10687,  1,    120.63,     58.95,     61.16,      -7.8,    1.019, 0,  188.08, 0, 1, 0, 0, 1, 1, 100,    120.63,    120.63, 1, 1, 0, 1, 0, 1, 0, 1, 0, 1
 10688,  1,    109.93,     58.95,     61.16,      -7.8,   1.0208, 0,  201.28, 0, 1, 0, 0, 1, 1, 100,    109.93,    109.93, 1, 1, 0, 1, 0, 1, 0, 1, 0, 1
 10689,  1,      9.02,      4.95,      4.95,     -0.63,   1.0014, 0,    12.9, 0, 1, 0, 0, 1, 1, 100,      9.02,      9.02, 1, 1, 0, 1, 0, 1, 0, 1, 0, 1
 10691,  1,     59.72,     21.07,     21.07,    -14.24,   1.0063, 0,   98.92, 0, 1, 0, 0, 1, 1, 100,     59.72,     59.72, 1, 1, 0, 1, 0, 1, 0, 1, 1, 1
 10694,  1,     23.02,      4.19,     13.44,     -1.71,   1.0483, 0,   35.08, 0, 1, 0, 0, 1, 1, 100,     23.02,     23.02, 1, 1, 0, 1, 0, 1, 0, 1, 0, 1
 10695,  1,     25.55,      4.19,     13.44,     -1.71,   1.0484, 0,   41.36, 0, 1, 0, 0, 1, 1, 100,     25.55,     25.55, 1, 1, 0, 1, 0, 1, 0, 1, 0, 1
 10699,  1,     79.42,     -14.5,     21.45,     -14.5,   1.0019, 0,  120.64, 0, 1, 0, 0, 1, 1, 100,     79.42,     79.42, 1, 1, 0, 1, 0, 1, 0, 1, 1, 1
 10703,  1,     136.3,     25.92,     29.03,    -19.63,   1.0605, 0,  174.64, 0, 1, 0, 0, 1, 1, 100,     136.3,     136.3, 1, 1, 0, 1, 0, 1, 0, 1, 1, 1
 10710,  1,    171.16,    -10.61,     83.17,    -10.61,   1.0096, 0,  238.48, 0, 1, 0, 0, 1, 1, 100,    171.16,    171.16, 1, 1, 0, 1, 0, 1, 0, 1, 0, 1
 10711,  1,    189.67,    -10.61,     83.17,    -10.61,     1.01, 0,  219.83, 0, 1, 0, 0, 1, 1, 100,    189.67,    189.67, 1, 1, 0, 1, 0, 1, 0, 1, 0, 1
 10712,  1,    135.95,    -10.61,     83.17,    -10.61,   1.0097, 0,  219.92, 0, 1, 0, 0, 1, 1, 100,    135.95,    135.95, 1, 1, 0, 1, 0, 1, 0, 1, 0, 1
 10713,  1,    189.37,    -10.61,     83.17,    -10.61,     1.01, 0,  259.93, 0, 1, 0, 0, 1, 1, 100,    189.37,    189.37, 1, 1, 0, 1, 0, 1, 0, 1, 0, 1
 10714,  1,         0,         0,     83.17,    -10.61,   1.0296, 0,  235.85, 0, 1, 0, 0, 1, 0, 100,     216.6,     42.73, 1, 1, 0, 1, 0, 1, 0, 1, 0, 1
 10715,  1,    172.43,    -10.61,     83.17,    -10.61,   1.0166, 0,  279.75, 0, 1, 0, 0, 1, 1, 100,    172.43,    172.43, 1, 1, 0, 1, 0, 1, 0, 1, 0, 1
 10722,  1,         0,         0,     40.28,     -5.14,   1.0344, 0,   131.4, 0, 1, 0, 0, 1, 0, 100,     104.9,     32.78, 1, 1, 0, 1, 0, 1, 0, 1, 0, 1
 10723,  1,     82.25,     40.28,     40.28,     -5.14,   1.0007, 0,  152.84, 0, 1, 0, 0, 1, 1, 100,     82.25,     82.25, 1, 1, 0, 1, 0, 1, 0, 1, 0, 1
 10724,  1,     104.9,     40.28,     40.28,     -5.14,   1.0018, 0,  115.76, 0, 1, 0, 0, 1, 1, 100,     104.9,     104.9, 1, 1, 0, 1, 0, 1, 0, 1, 0, 1
 10725,  1,     71.29,     40.28,     40.28,     -5.14,   1.0026, 0,  116.27, 0, 1, 0, 0, 1, 1, 100,     71.29,     71.29, 1, 1, 0, 1, 0, 1, 0, 1, 0, 1
 10726,  1,     71.08,     40.28,     40.28,     -5.14,   1.0029, 0,  106.56, 0, 1, 0, 0, 1, 1, 100,     71.08,     71.08, 1, 1, 0, 1, 0, 1, 0, 1, 0, 1
 10727,  1,         0,         0,     40.28,     -5.14,   1.0344, 0,  122.59, 0, 1, 0, 0, 1, 0, 100,     104.9,     28.25, 1, 1, 0, 1, 0, 1, 0, 1, 0, 1
 10728,  1,     23.81,     -1.37,     10.73,     -1.37,   1.0177, 0,   32.27, 0, 1, 0, 0, 1, 1, 100,     23.81,     23.81, 1, 1, 0, 1, 0, 1, 0, 1, 0, 1
 10728,  1,         0,         0,     10.73,     -1.37,   1.0177, 0,    35.8, 0, 1, 0, 0, 1, 0, 100,     27.95,      6.98, 1, 1, 0, 1, 0, 1, 0, 1, 0, 1
 10729,  1,         0,         0,     10.73,     -1.37,   1.0133, 0,   27.95, 0, 1, 0, 0, 1, 0, 100,     27.95,      6.03, 1, 1, 0, 1, 0, 1, 0, 1, 0, 1
 10729,  1,     20.46,     -1.37,     10.73,     -1.37,   1.0133, 0,   32.33, 0, 1, 0, 0, 1, 1, 100,     20.46,     20.46, 1, 1, 0, 1, 0, 1, 0, 1, 0, 1
 10731,  1,         0,         0,       6.5,     -0.83,   1.0172, 0,   18.62, 0, 1, 0, 0, 1, 0, 100,     16.92,      5.64, 1, 1, 0, 1, 0, 1, 0, 1, 0, 1
 10731,  1,         0,         0,       6.5,     -0.83,   1.0172, 0,   21.25, 0, 1, 0, 0, 1, 0, 100,     16.92,      6.86, 1, 1, 0, 1, 0, 1, 0, 1, 0, 1
 10731,  1,         0,         0,       6.5,     -0.83,   1.0172, 0,   16.92, 0, 1, 0, 0, 1, 0, 100,     16.92,      3.04, 1, 1, 0, 1, 0, 1, 0, 1, 0, 1
 10731,  1,      9.83,     -0.83,       6.5,     -0.83,   1.0172, 0,   19.89, 0, 1, 0, 0, 1, 1, 100,      9.83,      9.83, 1, 1, 0, 1, 0, 1, 0, 1, 0, 1
 10731,  1,         0,         0,       6.5,     -0.83,   1.0172, 0,   20.51, 0, 1, 0, 0, 1, 0, 100,     16.92,      4.16, 1, 1, 0, 1, 0, 1, 0, 1, 0, 1
 10737,  1,     158.5,     81.01,     81.01,    -17.67,   1.0343, 0,  193.29, 0, 1, 0, 0, 1, 1, 100,    159.15,     72.55, 1, 1, 0, 1, 0, 1, 0, 1, 0, 1
 10738,  1,     158.5,     81.01,     81.01,    -17.67,   1.0344, 0,  195.43, 0, 1, 0, 0, 1, 1, 100,    159.15,     58.54, 1, 1, 0, 1, 0, 1, 0, 1, 0, 1
 10742,  1,        80,     -3.92,     30.72,     -3.92,   1.0263, 0,   96.14, 0, 1, 0, 0, 1, 1, 100,        80,        80, 1, 1, 0, 1, 0, 1, 0, 1, 0, 1
 10743,  1,         0,         0,     30.72,     -3.92,   1.0265, 0,   93.18, 0, 1, 0, 0, 1, 0, 100,        80,     31.97, 1, 1, 0, 1, 0, 1, 0, 1, 0, 1
 10744,  1,     64.23,     -3.92,     30.72,     -3.92,   1.0262, 0,  106.35, 0, 1, 0, 0, 1, 1, 100,     64.23,     64.23, 1, 1, 0, 1, 0, 1, 0, 1, 0, 1
 10746,  1,     66.35,    -12.96,     19.17,    -12.96,   1.0205, 0,   98.26, 0, 1, 0, 0, 1, 1, 100,     66.35,     66.35, 1, 1, 0, 1, 0, 1, 0, 1, 1, 1
 10750,  1,    409.37,    -20.06,     157.2,    -20.06,   1.0419, 0,  498.65, 0, 1, 0, 0, 1, 1, 100,    409.37,    409.37, 1, 1, 0, 1, 0, 1, 0, 1, 0, 1
 10751,  1,         0,         0,     157.2,    -20.06,   1.0433, 0,  454.46, 0, 1, 0, 0, 1, 0, 100,    409.37,      47.4, 1, 1, 0, 1, 0, 1, 0, 1, 0, 1
 10752,  1,    293.05,    -20.06,     157.2,    -20.06,   1.0421, 0,  417.45, 0, 1, 0, 0, 1, 1, 100,    293.05,    293.05, 1, 1, 0, 1, 0, 1, 0, 1, 0, 1
 10753,  1,         0,         0,     157.2,    -20.06,   1.0433, 0,  459.34, 0, 1, 0, 0, 1, 0, 100,    409.37,     49.62, 1, 1, 0, 1, 0, 1, 0, 1, 0, 1
 10754,  1,     323.1,    -20.06,     157.2,    -20.06,   1.0417, 0,  487.04, 0, 1, 0, 0, 1, 1, 100,     323.1,     323.1, 1, 1, 0, 1, 0, 1, 0, 1, 0, 1
 10755,  1,    333.93,    -20.06,     157.2,    -20.06,   1.0413, 0,  548.59, 0, 1, 0, 0, 1, 1, 100,    333.93,    333.93, 1, 1, 0, 1, 0, 1, 0, 1, 0, 1
 10757,  1,      40.5,     -1.98,     15.55,     -1.98,   1.0231, 0,   45.68, 0, 1, 0, 0, 1, 1, 100,      40.5,      40.5, 1, 1, 0, 1, 0, 1, 0, 1, 0, 1
 10757,  1,      40.5,     -1.98,     15.55,     -1.98,   1.0231, 0,   47.33, 0, 1, 0, 0, 1, 1, 100,      40.5,      40.5, 1, 1, 0, 1, 0, 1, 0, 1, 0, 1
 10757,  1,     28.94,     -1.98,     15.55,     -1.98,   1.0231, 0,   57.72, 0, 1, 0, 0, 1, 1, 100,     28.94,     28.94, 1, 1, 0, 1, 0, 1, 0, 1, 0, 1
 10757,  1,         0,         0,     15.55,     -1.98,   1.0231, 0,    56.8, 0, 1, 0, 0, 1, 0, 100,      40.5,      9.58, 1, 1, 0, 1, 0, 1, 0, 1, 0, 1
 10758,  1,         0,         0,     21.35,     -2.72,     1.04, 0,   64.74, 0, 1, 0, 0, 1, 0, 100,      55.6,     19.42, 1, 1, 0, 1, 0, 1, 0, 1, 0, 1
 10758,  1,      55.6,     21.35,     21.35,     -2.72,     1.04, 0,   63.99, 0, 1, 0, 0, 1, 1, 100,      55.6,      55.6, 1, 1, 0, 1, 0, 1, 0, 1, 0, 1
 10760,  1,         0,         0,         0,         0,     1.04, 0,   69.12, 0, 1, 0, 0, 1, 0, 100,      61.5,     13.06, 1, 1, 0, 1, 0, 1, 0, 1, 0, 1
 10768,  1,    212.51,     56.83,     56.83,    -38.42,   1.0304, 0,  301.55, 0, 1, 0, 0, 1, 1, 100,    212.51,    212.51, 1, 1, 0, 1, 0, 1, 0, 1, 1, 1
 10771,  1,     51.82,      19.9,      19.9,     -2.54,   1.0384, 0,   72.35, 0, 1, 0, 0, 1, 1, 100,     51.82,     51.82, 1, 1, 0, 1, 0, 1, 0, 1, 0, 1
 10772,  1,     41.62,      19.9,      19.9,     -2.54,   1.0394, 0,   52.68, 0, 1, 0, 0, 1, 1, 100,     41.62,     41.62, 1, 1, 0, 1, 0, 1, 0, 1, 0, 1
 10773,  1,         0,         0,      19.9,     -2.54,   1.0317, 0,   66.71, 0, 1, 0, 0, 1, 0, 100,     51.82,     20.88, 1, 1, 0, 1, 0, 1, 0, 1, 0, 1
 10774,  1,     41.38,      19.9,      19.9,     -2.54,   1.0373, 0,   57.61, 0, 1, 0, 0, 1, 1, 100,     41.38,     41.38, 1, 1, 0, 1, 0, 1, 0, 1, 0, 1
 10776,  1,         0,         0,         0,         0,   1.0318, 0,   32.07, 0, 1, 0, 0, 1, 0, 100,        28,      3.77, 1, 1, 0, 1, 0, 1, 0, 1, 0, 1
 10776,  1,     14.32,         0,         0,         0,   1.0318, 0,   23.98, 0, 1, 0, 0, 1, 1, 100,     14.32,     14.32, 1, 1, 0, 1, 0, 1, 0, 1, 0, 1
 10778,  1,      8.03,     -0.49,      3.84,     -0.49,   1.0192, 0,   11.56, 0, 1, 0, 0, 1, 1, 100,      8.03,      8.03, 1, 1, 0, 1, 0, 1, 0, 1, 0, 1
 10778,  1,      14.8,     -0.73,      5.68,     -0.73,   1.0192, 0,   14.94, 0, 1, 0, 0, 1, 1, 100,      14.8,      14.8, 1, 1, 0, 1, 0, 1, 0, 1, 0, 1
 10782,  1,     13.43,         0,         0,         0,   1.0162, 0,   27.32, 0, 1, 0, 0, 1, 1, 100,     13.43,     13.43, 1, 1, 0, 1, 0, 1, 0, 1, 0, 1
 10782,  1,     14.65,         0,         0,         0,   1.0162, 0,   18.63, 0, 1, 0, 0, 1, 1, 100,     14.65,     14.65, 1, 1, 0, 1, 0, 1, 0, 1, 0, 1
 10783,  1,     13.24,         0,         0,         0,   1.0155, 0,   22.11, 0, 1, 0, 0, 1, 1, 100,     13.24,     13.24, 1, 1, 0, 1, 0, 1, 0, 1, 0, 1
 10784,  1,     17.21,         0,         0,         0,   1.0192, 0,   43.83, 0, 1, 0, 0, 1, 1, 100,     17.21,     17.21, 1, 1, 0, 1, 0, 1, 0, 1, 0, 1
 10784,  1,     42.83,         0,         0,         0,   1.0192, 0,   64.64, 0, 1, 0, 0, 1, 1, 100,     42.83,     42.83, 1, 1, 0, 1, 0, 1, 0, 1, 0, 1
 10785,  1,      39.4,         0,         0,         0,   1.0192, 0,   44.46, 0, 1, 0, 0, 1, 1, 100,      39.4,      39.4, 1, 1, 0, 1, 0, 1, 0, 1, 0, 1
 10785,  1,     31.08,         0,         0,         0,   1.0192, 0,   49.64, 0, 1, 0, 0, 1, 1, 100,     31.08,     31.08, 1, 1, 0, 1, 0, 1, 0, 1, 0, 1
 10791,  1,      58.2,     22.43,     22.43,    -15.16,    0.996, 0,  136.19, 0, 1, 0, 0, 1, 1, 100,      58.2,      58.2, 1, 1, 0, 1, 0, 1, 0, 1, 1, 1
 10796,  1,         0,         0,     21.23,     -4.63,    1.043, 0,   55.57, 0, 1, 0, 0, 1, 0, 100,      41.7,      7.42, 1, 1, 0, 1, 0, 1, 0, 1, 0, 1
 10797,  1,     41.53,     10.61,     21.23,     -4.63,   1.0445, 0,   62.55, 0, 1, 0, 0, 1, 1, 100,      41.7,      8.83, 1, 1, 0, 1, 0, 1, 0, 1, 0, 1
 10797,  1,     41.53,     10.61,     21.23,     -4.63,   1.0445, 0,    41.7, 0, 1, 0, 0, 1, 1, 100,      41.7,     16.64, 1, 1, 0, 1, 0, 1, 0, 1, 0, 1
 10798,  1,     41.53,     -4.63,     21.23,     -4.63,   1.0269, 0,    41.7, 0, 1, 0, 0, 1, 1, 100,      41.7,     13.81, 1, 1, 0, 1, 0, 1, 0, 1, 0, 1
 10800,  1,     82.34,    -14.08,     20.83,    -14.08,     1.04, 0,  129.15, 0, 1, 0, 0, 1, 1, 100,     82.34,     82.34, 1, 1, 0, 1, 0, 1, 0, 1, 1, 1
 10802,  1,     10.22,      4.61,      4.61,     -0.59,   1.0443, 0,   14.15, 0, 1, 0, 0, 1, 1, 100,     10.22,     10.22, 1, 1, 0, 1, 0, 1, 0, 1, 0, 1
 10803,  1,        12,      4.61,      4.61,     -0.59,   1.0444, 0,   12.12, 0, 1, 0, 0, 1, 1, 100,        12,        12, 1, 1, 0, 1, 0, 1, 0, 1, 0, 1
 10806,  1,     34.74,     -2.23,     17.51,     -2.23,   1.0235, 0,   52.42, 0, 1, 0, 0, 1, 1, 100,     34.74,     34.74, 1, 1, 0, 1, 0, 1, 0, 1, 0, 1
 10806,  1,     42.97,     -2.23,     17.51,     -2.23,   1.0235, 0,   61.48, 0, 1, 0, 0, 1, 1, 100,     42.97,     42.97, 1, 1, 0, 1, 0, 1, 0, 1, 0, 1
 10807,  1,         0,         0,     17.51,     -2.23,   1.0261, 0,    68.4, 0, 1, 0, 0, 1, 0, 100,      45.6,     21.01, 1, 1, 0, 1, 0, 1, 0, 1, 0, 1
 10807,  1,     30.26,     -2.23,     17.51,     -2.23,   1.0261, 0,   51.24, 0, 1, 0, 0, 1, 1, 100,     30.26,     30.26, 1, 1, 0, 1, 0, 1, 0, 1, 0, 1
 10811,  1,   1195.12,    296.98,     441.6,     -98.4,   1.0653, 0, 1400.38, 0, 1, 0, 0, 1, 1, 100,      1200,    469.13, 1, 1, 0, 1, 0, 1, 0, 1, 0, 1
 10813,  1,     56.32,     -3.28,     25.73,     -3.28,   1.0153, 0,    74.5, 0, 1, 0, 0, 1, 1, 100,     56.32,     56.32, 1, 1, 0, 1, 0, 1, 0, 1, 0, 1
 10813,  1,         0,         0,     25.73,     -3.28,   1.0153, 0,    91.7, 0, 1, 0, 0, 1, 0, 100,        67,     30.37, 1, 1, 0, 1, 0, 1, 0, 1, 0, 1
 10817,  1,      50.7,         0,         0,         0,     1.04, 0,   68.96, 0, 1, 0, 0, 1, 1, 100,      50.7,      50.7, 1, 1, 0, 1, 0, 1, 0, 1, 0, 1
 10818,  1,         0,         0,         0,         0,     1.04, 0,     7.2, 0, 1, 0, 0, 1, 0, 100,       7.2,      2.33, 1, 1, 0, 1, 0, 1, 0, 1, 0, 1
 10821,  1,         0,         0,     32.21,    -21.77,   1.0423, 0,  208.02, 0, 1, 0, 0, 1, 0, 100,     151.2,     63.85, 1, 1, 0, 1, 0, 1, 0, 1, 1, 1
 10829,  1,     75.24,     -6.62,     51.84,     -6.62,   1.0232, 0,   168.3, 0, 1, 0, 0, 1, 1, 100,     75.24,     75.24, 1, 1, 0, 1, 0, 1, 0, 1, 0, 1
 10830,  1,       135,     -6.62,     51.84,     -6.62,   1.0235, 0,   159.7, 0, 1, 0, 0, 1, 1, 100,       135,       135, 1, 1, 0, 1, 0, 1, 0, 1, 0, 1
 10831,  1,    106.15,     -6.62,     51.84,     -6.62,   1.0233, 0,  152.07, 0, 1, 0, 0, 1, 1, 100,    106.15,    106.15, 1, 1, 0, 1, 0, 1, 0, 1, 0, 1
 10832,  1,       135,     -6.62,     51.84,     -6.62,   1.0236, 0,  143.54, 0, 1, 0, 0, 1, 1, 100,       135,       135, 1, 1, 0, 1, 0, 1, 0, 1, 0, 1
 10833,  1,     88.14,     -6.62,     51.84,     -6.62,   1.0234, 0,  177.11, 0, 1, 0, 0, 1, 1, 100,     88.14,     88.14, 1, 1, 0, 1, 0, 1, 0, 1, 0, 1
 10834,  1,     75.59,     -6.62,     51.84,     -6.62,   1.0235, 0,  175.15, 0, 1, 0, 0, 1, 1, 100,     75.59,     75.59, 1, 1, 0, 1, 0, 1, 0, 1, 0, 1
 10836,  1,     88.54,     -9.87,     45.25,     -9.87,   1.0221, 0,  116.35, 0, 1, 0, 0, 1, 1, 100,      88.9,     20.57, 1, 1, 0, 1, 0, 1, 0, 1, 0, 1
 10836,  1,     88.54,     -9.87,     45.25,     -9.87,   1.0221, 0,   90.43, 0, 1, 0, 0, 1, 1, 100,      88.9,     14.92, 1, 1, 0, 1, 0, 1, 0, 1, 0, 1
 10838,  1,     45.58,         0,         0,         0,     1.04, 0,   91.58, 0, 1, 0, 0, 1, 1, 100,     45.58,     45.58, 1, 1, 0, 1, 0, 1, 0, 1, 0, 1
 10842,  1,      10.5,      4.92,      4.92,     -0.63,    1.038, 0,    12.8, 0, 1, 0, 0, 1, 1, 100,      10.5,      10.5, 1, 1, 0, 1, 0, 1, 0, 1, 0, 1
 10842,  1,      8.22,      4.92,      4.92,     -0.63,    1.038, 0,   16.02, 0, 1, 0, 0, 1, 1, 100,      8.22,      8.22, 1, 1, 0, 1, 0, 1, 0, 1, 0, 1
 10843,  1,     11.05,     -0.63,      4.92,     -0.63,   1.0182, 0,   13.06, 0, 1, 0, 0, 1, 1, 100,     11.05,     11.05, 1, 1, 0, 1, 0, 1, 0, 1, 0, 1
 10843,  1,         0,         0,      4.92,     -0.63,   1.0182, 0,   14.28, 0, 1, 0, 0, 1, 0, 100,      12.8,      3.56, 1, 1, 0, 1, 0, 1, 0, 1, 0, 1
 10843,  1,      8.89,     -0.63,      4.92,     -0.63,   1.0182, 0,    12.8, 0, 1, 0, 0, 1, 1, 100,      8.89,      8.89, 1, 1, 0, 1, 0, 1, 0, 1, 0, 1
 10847,  1,     100.5,     -4.92,     38.59,     -4.92,   1.0367, 0,  118.86, 0, 1, 0, 0, 1, 1, 100,     100.5,     100.5, 1, 1, 0, 1, 0, 1, 0, 1, 0, 1
 10848,  1,     78.52,     -4.92,     38.59,     -4.92,   1.0367, 0,  140.04, 0, 1, 0, 0, 1, 1, 100,     78.52,     78.52, 1, 1, 0, 1, 0, 1, 0, 1, 0, 1
 10849,  1,     83.39,     -4.92,     38.59,     -4.92,   1.0367, 0,  128.45, 0, 1, 0, 0, 1, 1, 100,     83.39,     83.39, 1, 1, 0, 1, 0, 1, 0, 1, 0, 1
 10850,  1,      87.3,     -4.92,     38.59,     -4.92,   1.0365, 0,  120.81, 0, 1, 0, 0, 1, 1, 100,      87.3,      87.3, 1, 1, 0, 1, 0, 1, 0, 1, 0, 1
 10851,  1,     80.36,     -4.92,     38.59,     -4.92,   1.0368, 0,  108.12, 0, 1, 0, 0, 1, 1, 100,     80.36,     80.36, 1, 1, 0, 1, 0, 1, 0, 1, 0, 1
 10852,  1,     99.06,     -4.92,     38.59,     -4.92,   1.0368, 0,   100.5, 0, 1, 0, 0, 1, 1, 100,     99.06,     99.06, 1, 1, 0, 1, 0, 1, 0, 1, 0, 1
 10853,  1,         0,         0,      3.84,     -0.49,   1.0372, 0,   13.29, 0, 1, 0, 0, 1, 0, 100,        10,      3.43, 1, 1, 0, 1, 0, 1, 0, 1, 0, 1
 10859,  1,         0,         0,    340.13,    -89.05,   1.0395, 0,   844.8, 0, 1, 0, 0, 1, 0, 100,     729.9,    357.25, 1, 1, 0, 1, 0, 1, 0, 1, 0, 1
 10860,  1,    322.89,    -89.05,    340.13,    -89.05,   1.0341, 0,  887.05, 0, 1, 0, 0, 1, 1, 100,     729.9,    312.19, 1, 1, 0, 1, 0, 1, 0, 1, 0, 1
 10864,  1,    103.61,      57.6,      57.6,     -7.35,   1.0058, 0,  187.87, 0, 1, 0, 0, 1, 1, 100,    103.61,    103.61, 1, 1, 0, 1, 0, 1, 0, 1, 0, 1
 10865,  1,    110.96,      57.6,      57.6,     -7.35,   1.0062, 0,     209, 0, 1, 0, 0, 1, 1, 100,    110.96,    110.96, 1, 1, 0, 1, 0, 1, 0, 1, 0, 1
 10867,  1,     11.12,     -0.74,      5.76,     -0.74,   0.9782, 0,   15.21, 0, 1, 0, 0, 1, 1, 100,     11.12,     11.12, 1, 1, 0, 1, 0, 1, 0, 1, 0, 1
 10867,  1,     11.39,     -0.74,      5.76,     -0.74,   0.9782, 0,   20.37, 0, 1, 0, 0, 1, 1, 100,     11.39,     11.39, 1, 1, 0, 1, 0, 1, 0, 1, 0, 1
 10869,  1,         0,         0,      3.84,     -0.49,   1.0067, 0,      10, 0, 1, 0, 0, 1, 0, 100,        10,      3.11, 1, 1, 0, 1, 0, 1, 0, 1, 0, 1
 10869,  1,        10,      3.84,      3.84,     -0.49,   1.0067, 0,   11.12, 0, 1, 0, 0, 1, 1, 100,        10,        10, 1, 1, 0, 1, 0, 1, 0, 1, 0, 1
 10872,  1,     61.55,     31.46,     31.46,     -6.86,   1.0229, 0,   90.38, 0, 1, 0, 0, 1, 1, 100,      61.8,     28.09, 1, 1, 0, 1, 0, 1, 0, 1, 0, 1
 10873,  1,     21.91,     -1.45,     11.37,     -1.45,   1.0192, 0,   33.07, 0, 1, 0, 0, 1, 1, 100,     21.91,     21.91, 1, 1, 0, 1, 0, 1, 0, 1, 0, 1
 10873,  1,         0,         0,     11.37,     -1.45,   1.0192, 0,   38.51, 0, 1, 0, 0, 1, 0, 100,      29.6,      4.59, 1, 1, 0, 1, 0, 1, 0, 1, 0, 1
 10879,  1,     70.43,     -6.62,     51.84,     -6.62,   1.0364, 0,   149.8, 0, 1, 0, 0, 1, 1, 100,     70.43,     70.43, 1, 1, 0, 1, 0, 1, 0, 1, 0, 1
 10880,  1,    109.22,     -6.62,     51.84,     -6.62,   1.0366, 0,     177, 0, 1, 0, 0, 1, 1, 100,    109.22,    109.22, 1, 1, 0, 1, 0, 1, 0, 1, 0, 1
 10881,  1,     73.16,     -6.62,     51.84,     -6.62,   1.0364, 0,     178, 0, 1, 0, 0, 1, 1, 100,     73.16,     73.16, 1, 1, 0, 1, 0, 1, 0, 1, 0, 1
 10882,  1,         0,         0,     51.84,     -6.62,   1.0369, 0,  183.66, 0, 1, 0, 0, 1, 0, 100,       135,     26.85, 1, 1, 0, 1, 0, 1, 0, 1, 0, 1
 10883,  1,         0,         0,     51.84,     -6.62,   1.0369, 0,  146.95, 0, 1, 0, 0, 1, 0, 100,       135,     57.54, 1, 1, 0, 1, 0, 1, 0, 1, 0, 1
 10884,  1,    118.13,     -6.62,     51.84,     -6.62,   1.0364, 0,  153.95, 0, 1, 0, 0, 1, 1, 100,    118.13,    118.13, 1, 1, 0, 1, 0, 1, 0, 1, 0, 1
 10889,  1,     87.44,      42.4,     44.69,     -9.75,   1.0386, 0,  110.05, 0, 1, 0, 0, 1, 1, 100,      87.8,     43.63, 1, 1, 0, 1, 0, 1, 0, 1, 0, 1
 10890,  1,         0,         0,     19.19,     -4.18,   1.0327, 0,   38.42, 0, 1, 0, 0, 1, 0, 100,      37.7,      15.1, 1, 1, 0, 1, 0, 1, 0, 1, 0, 1
 10895,  1,     93.62,    -10.43,     47.85,    -10.43,   1.0246, 0,  115.42, 0, 1, 0, 0, 1, 1, 100,        94,     38.95, 1, 1, 0, 1, 0, 1, 0, 1, 0, 1
...